  Version,9.1;

  Timestep,6;

  LifeCycleCost:Parameters,
    Life Cycle Cost Parameters,  !- Name
    EndOfYear,               !- Discounting Convention
    ConstantDollar,          !- Inflation Approach
    0.03,                    !- Real Discount Rate
    ,                        !- Nominal Discount Rate
    ,                        !- Inflation
    ,                        !- Base Date Month
    2011,                    !- Base Date Year
    ,                        !- Service Date Month
    2011,                    !- Service Date Year
    25,                      !- Length of Study Period in Years
    ,                        !- Tax rate
    None;                    !- Depreciation Method

  LifeCycleCost:UsePriceEscalation,
    U.S. Avg  Commercial-Electricity,  !- LCC Price Escalation Name
    Electricity,             !- Resource
    2011,                    !- Escalation Start Year
    January,                 !- Escalation Start Month
    0.9838,                  !- Year 1 Escalation
    0.9730,                  !- Year 2 Escalation
    0.9632,                  !- Year 3 Escalation
    0.9611,                  !- Year 4 Escalation
    0.9571,                  !- Year 5 Escalation
    0.9553,                  !- Year 6 Escalation
    0.9539,                  !- Year 7 Escalation
    0.9521,                  !- Year 8 Escalation
    0.9546,                  !- Year 9 Escalation
    0.9550,                  !- <none>
    0.9553,                  !- <none>
    0.9564,                  !- <none>
    0.9575,                  !- <none>
    0.9596,                  !- <none>
    0.9618,                  !- <none>
    0.9614,                  !- <none>
    0.9618,                  !- <none>
    0.9618,                  !- <none>
    0.9593,                  !- <none>
    0.9589,                  !- <none>
    0.9607,                  !- <none>
    0.9625,                  !- <none>
    0.9650,                  !- <none>
    0.9708,                  !- <none>
    0.9751,                  !- <none>
    0.9762,                  !- <none>
    0.9766,                  !- <none>
    0.9766,                  !- <none>
    0.9769,                  !- <none>
    0.9773;                  !- <none>

  LifeCycleCost:UsePriceEscalation,
    U.S. Avg  Commercial-Distillate Oil,  !- LCC Price Escalation Name
    FuelOil#1,               !- Resource
    2011,                    !- Escalation Start Year
    January,                 !- Escalation Start Month
    0.9714,                  !- Year 1 Escalation
    0.9730,                  !- Year 2 Escalation
    0.9942,                  !- Year 3 Escalation
    1.0164,                  !- Year 4 Escalation
    1.0541,                  !- Year 5 Escalation
    1.0928,                  !- Year 6 Escalation
    1.1267,                  !- Year 7 Escalation
    1.1580,                  !- Year 8 Escalation
    1.1792,                  !- Year 9 Escalation
    1.1967,                  !- <none>
    1.2200,                  !- <none>
    1.2333,                  !- <none>
    1.2566,                  !- <none>
    1.2709,                  !- <none>
    1.2826,                  !- <none>
    1.2985,                  !- <none>
    1.3102,                  !- <none>
    1.3250,                  !- <none>
    1.3261,                  !- <none>
    1.3282,                  !- <none>
    1.3324,                  !- <none>
    1.3356,                  !- <none>
    1.3431,                  !- <none>
    1.3510,                  !- <none>
    1.3568,                  !- <none>
    1.3606,                  !- <none>
    1.3637,                  !- <none>
    1.3674,                  !- <none>
    1.3706,                  !- <none>
    1.3743;                  !- <none>

  LifeCycleCost:UsePriceEscalation,
    U.S. Avg  Commercial-Residual Oil,  !- LCC Price Escalation Name
    FuelOil#2,               !- Resource
    2011,                    !- Escalation Start Year
    January,                 !- Escalation Start Month
    0.8469,                  !- Year 1 Escalation
    0.8257,                  !- Year 2 Escalation
    0.8681,                  !- Year 3 Escalation
    0.8988,                  !- Year 4 Escalation
    0.9289,                  !- Year 5 Escalation
    0.9604,                  !- Year 6 Escalation
    0.9897,                  !- Year 7 Escalation
    1.0075,                  !- Year 8 Escalation
    1.0314,                  !- Year 9 Escalation
    1.0554,                  !- <none>
    1.0861,                  !- <none>
    1.1278,                  !- <none>
    1.1497,                  !- <none>
    1.1620,                  !- <none>
    1.1743,                  !- <none>
    1.1852,                  !- <none>
    1.1948,                  !- <none>
    1.2037,                  !- <none>
    1.2071,                  !- <none>
    1.2119,                  !- <none>
    1.2139,                  !- <none>
    1.2194,                  !- <none>
    1.2276,                  !- <none>
    1.2365,                  !- <none>
    1.2420,                  !- <none>
    1.2461,                  !- <none>
    1.2509,                  !- <none>
    1.2550,                  !- <none>
    1.2591,                  !- <none>
    1.2638;                  !- <none>

  LifeCycleCost:UsePriceEscalation,
    U.S. Avg  Commercial-Natural gas,  !- LCC Price Escalation Name
    NaturalGas,              !- Resource
    2011,                    !- Escalation Start Year
    January,                 !- Escalation Start Month
    0.9823,                  !- Year 1 Escalation
    0.9557,                  !- Year 2 Escalation
    0.9279,                  !- Year 3 Escalation
    0.9257,                  !- Year 4 Escalation
    0.9346,                  !- Year 5 Escalation
    0.9412,                  !- Year 6 Escalation
    0.9512,                  !- Year 7 Escalation
    0.9645,                  !- Year 8 Escalation
    0.9856,                  !- Year 9 Escalation
    1.0067,                  !- <none>
    1.0222,                  !- <none>
    1.0410,                  !- <none>
    1.0610,                  !- <none>
    1.0787,                  !- <none>
    1.0942,                  !- <none>
    1.1098,                  !- <none>
    1.1220,                  !- <none>
    1.1308,                  !- <none>
    1.1386,                  !- <none>
    1.1486,                  !- <none>
    1.1619,                  !- <none>
    1.1763,                  !- <none>
    1.1918,                  !- <none>
    1.2118,                  !- <none>
    1.2284,                  !- <none>
    1.2439,                  !- <none>
    1.2605,                  !- <none>
    1.2772,                  !- <none>
    1.2938,                  !- <none>
    1.3115;                  !- <none>

  LifeCycleCost:UsePriceEscalation,
    U.S. Avg  Commercial-Coal,  !- LCC Price Escalation Name
    Coal,                    !- Resource
    2011,                    !- Escalation Start Year
    January,                 !- Escalation Start Month
    0.9970,                  !- Year 1 Escalation
    1.0089,                  !- Year 2 Escalation
    1.0089,                  !- Year 3 Escalation
    0.9941,                  !- Year 4 Escalation
    0.9941,                  !- Year 5 Escalation
    1.0000,                  !- Year 6 Escalation
    1.0030,                  !- Year 7 Escalation
    1.0059,                  !- Year 8 Escalation
    1.0089,                  !- Year 9 Escalation
    1.0119,                  !- <none>
    1.0148,                  !- <none>
    1.0178,                  !- <none>
    1.0208,                  !- <none>
    1.0267,                  !- <none>
    1.0297,                  !- <none>
    1.0356,                  !- <none>
    1.0415,                  !- <none>
    1.0534,                  !- <none>
    1.0564,                  !- <none>
    1.0593,                  !- <none>
    1.0653,                  !- <none>
    1.0712,                  !- <none>
    1.0742,                  !- <none>
    1.0801,                  !- <none>
    1.0831,                  !- <none>
    1.0831,                  !- <none>
    1.0861,                  !- <none>
    1.0890,                  !- <none>
    1.0920,                  !- <none>
    1.0950;                  !- <none>

  Building,
    Building 1,              !- Name
    ,                        !- North Axis {deg}
    ,                        !- Terrain
    ,                        !- Loads Convergence Tolerance Value
    ,                        !- Temperature Convergence Tolerance Value {deltaC}
    ,                        !- Solar Distribution
    ,                        !- Maximum Number of Warmup Days
    ;                        !- Minimum Number of Warmup Days

  Zone,
    Thermal Zone 1,          !- Name
    ,                        !- Direction of Relative North {deg}
    30.48,                   !- X Origin {m}
    0,                       !- Y Origin {m}
    0,                       !- Z Origin {m}
    ,                        !- Type
    ,                        !- Multiplier
    ,                        !- Ceiling Height {m}
    ,                        !- Volume {m3}
    ,                        !- Floor Area {m2}
    ,                        !- Zone Inside Convection Algorithm
    ;                        !- Zone Outside Convection Algorithm

  BuildingSurface:Detailed,
    Surface 1,               !- Name
    Floor,                   !- Surface Type
    ExtSlabCarpet 4in ClimateZone 1-8,  !- Construction Name
    Thermal Zone 1,          !- Zone Name
    Ground,                  !- Outside Boundary Condition
    ,                        !- Outside Boundary Condition Object
    NoSun,                   !- Sun Exposure
    NoWind,                  !- Wind Exposure
    ,                        !- View Factor to Ground
    ,                        !- Number of Vertices
    -4.572,4.572,0,  !- X,Y,Z ==> Vertex 1 {m}
    0,0,0,  !- X,Y,Z ==> Vertex 2 {m}
    -30.48,0,0,  !- X,Y,Z ==> Vertex 3 {m}
    -25.908,4.572,0;  !- X,Y,Z ==> Vertex 4 {m}

  BuildingSurface:Detailed,
    Surface 2,               !- Name
    Wall,                    !- Surface Type
    ASHRAE 90.1-2010 ExtWall Mass ClimateZone 5,  !- Construction Name
    Thermal Zone 1,          !- Zone Name
    Outdoors,                !- Outside Boundary Condition
    ,                        !- Outside Boundary Condition Object
    SunExposed,              !- Sun Exposure
    WindExposed,             !- Wind Exposure
    ,                        !- View Factor to Ground
    ,                        !- Number of Vertices
    -30.48,0,3.048,  !- X,Y,Z ==> Vertex 1 {m}
    -30.48,0,0,  !- X,Y,Z ==> Vertex 2 {m}
    0,0,0,  !- X,Y,Z ==> Vertex 3 {m}
    0,0,3.048;  !- X,Y,Z ==> Vertex 4 {m}

  FenestrationSurface:Detailed,
    Sub Surface 67,          !- Name
    Window,                  !- Surface Type
    ASHRAE 90.1-2010 ExtWindow Metal ClimateZone 4-6,  !- Construction Name
    Surface 2,               !- Building Surface Name
    ,                        !- Outside Boundary Condition Object
    ,                        !- View Factor to Ground
    ,                        !- Frame and Divider Name
    ,                        !- Multiplier
    ,                        !- Number of Vertices
    -30.4546,0,1.98123539232053,  !- X,Y,Z ==> Vertex 1 {m}
    -30.4546,0,0.76,  !- X,Y,Z ==> Vertex 2 {m}
    -0.0253999999999976,0,0.76,  !- X,Y,Z ==> Vertex 3 {m}
    -0.0253999999999976,0,1.98123539232053;  !- X,Y,Z ==> Vertex 4 {m}

  BuildingSurface:Detailed,
    Surface 3,               !- Name
    Wall,                    !- Surface Type
    Interior Wall,           !- Construction Name
    Thermal Zone 1,          !- Zone Name
    Surface,                 !- Outside Boundary Condition
    Surface 9,               !- Outside Boundary Condition Object
    NoSun,                   !- Sun Exposure
    NoWind,                  !- Wind Exposure
    ,                        !- View Factor to Ground
    ,                        !- Number of Vertices
    -25.908,4.572,3.048,  !- X,Y,Z ==> Vertex 1 {m}
    -25.908,4.572,0,  !- X,Y,Z ==> Vertex 2 {m}
    -30.48,-2.04187384066908e-15,0,  !- X,Y,Z ==> Vertex 3 {m}
    -30.48,-2.04187384066908e-15,3.048;  !- X,Y,Z ==> Vertex 4 {m}

  BuildingSurface:Detailed,
    Surface 4,               !- Name
    Wall,                    !- Surface Type
    Interior Wall,           !- Construction Name
    Thermal Zone 1,          !- Zone Name
    Surface,                 !- Outside Boundary Condition
    Surface 22,              !- Outside Boundary Condition Object
    NoSun,                   !- Sun Exposure
    NoWind,                  !- Wind Exposure
    ,                        !- View Factor to Ground
    ,                        !- Number of Vertices
    -4.572,4.572,3.048,  !- X,Y,Z ==> Vertex 1 {m}
    -4.572,4.572,0,  !- X,Y,Z ==> Vertex 2 {m}
    -25.908,4.572,0,  !- X,Y,Z ==> Vertex 3 {m}
    -25.908,4.572,3.048;  !- X,Y,Z ==> Vertex 4 {m}

  BuildingSurface:Detailed,
    Surface 5,               !- Name
    Wall,                    !- Surface Type
    Interior Wall,           !- Construction Name
    Thermal Zone 1,          !- Zone Name
    Surface,                 !- Outside Boundary Condition
    Surface 15,              !- Outside Boundary Condition Object
    NoSun,                   !- Sun Exposure
    NoWind,                  !- Wind Exposure
    ,                        !- View Factor to Ground
    ,                        !- Number of Vertices
    0,0,3.048,  !- X,Y,Z ==> Vertex 1 {m}
    0,0,0,  !- X,Y,Z ==> Vertex 2 {m}
    -4.572,4.572,0,  !- X,Y,Z ==> Vertex 3 {m}
    -4.572,4.572,3.048;  !- X,Y,Z ==> Vertex 4 {m}

  BuildingSurface:Detailed,
    Surface 6,               !- Name
    Ceiling,                 !- Surface Type
    Interior Ceiling,        !- Construction Name
    Thermal Zone 1,          !- Zone Name
    Surface,                 !- Outside Boundary Condition
    Surface 31,              !- Outside Boundary Condition Object
    NoSun,                   !- Sun Exposure
    NoWind,                  !- Wind Exposure
    ,                        !- View Factor to Ground
    ,                        !- Number of Vertices
    0,0,3.048,  !- X,Y,Z ==> Vertex 1 {m}
    -4.572,4.572,3.048,  !- X,Y,Z ==> Vertex 2 {m}
    -25.908,4.572,3.048,  !- X,Y,Z ==> Vertex 3 {m}
    -30.48,0,3.048;  !- X,Y,Z ==> Vertex 4 {m}

  ZoneControl:Thermostat,
    Thermal Zone 1 Thermostat,  !- Name
    Thermal Zone 1,          !- Zone or ZoneList Name
    Thermal Zone 1 Thermostat Schedule,  !- Control Type Schedule Name
    ThermostatSetpoint:DualSetpoint,  !- Control 1 Object Type
    Thermostat Setpoint Dual Setpoint 1;  !- Control 1 Name

  Schedule:Compact,
    Thermal Zone 1 Thermostat Schedule,  !- Name
    Thermal Zone 1 Thermostat Schedule Type Limits,  !- Schedule Type Limits Name
    Through: 12/31,          !- Field 1
    For: AllDays,            !- Field 2
    Until: 24:00,4;          !- Field 3

  ScheduleTypeLimits,
    Thermal Zone 1 Thermostat Schedule Type Limits,  !- Name
    0,                       !- Lower Limit Value
    4,                       !- Upper Limit Value
    DISCRETE;                !- Numeric Type

  ThermostatSetpoint:DualSetpoint,
    Thermostat Setpoint Dual Setpoint 1,  !- Name
    Medium Office HtgSetp,   !- Heating Setpoint Temperature Schedule Name
    Medium Office ClgSetp;   !- Cooling Setpoint Temperature Schedule Name

  ScheduleTypeLimits,
    Temperature 36,          !- Name
    ,                        !- Lower Limit Value
    ,                        !- Upper Limit Value
    Continuous,              !- Numeric Type
    temperature;             !- Unit Type

  Schedule:Day:Interval,
    Medium Office HtgSetp Rule 1 Day Schedule,  !- Name
    Temperature 36,          !- Schedule Type Limits Name
    No,                      !- Interpolate to Timestep
    24:00,                   !- Time 1
    15.6;                    !- Value Until Time 1

  Schedule:Day:Interval,
    Medium Office HtgSetp Default Schedule,  !- Name
    Temperature 36,          !- Schedule Type Limits Name
    No,                      !- Interpolate to Timestep
    06:00,                   !- Time 1
    15.6,                    !- Value Until Time 1
    22:00,                   !- Time 2
    21,                      !- Value Until Time 2
    24:00,                   !- Time 3
    15.6;                    !- Value Until Time 3

  Schedule:Day:Interval,
    Medium Office HtgSetp Rule 2 Day Schedule,  !- Name
    Temperature 36,          !- Schedule Type Limits Name
    No,                      !- Interpolate to Timestep
    06:00,                   !- Time 1
    15.6,                    !- Value Until Time 1
    18:00,                   !- Time 2
    21,                      !- Value Until Time 2
    24:00,                   !- Time 3
    15.6;                    !- Value Until Time 3

  Schedule:Week:Daily,
    Medium Office HtgSetp Week Rule - Jan1-Dec31,  !- Name
    Medium Office HtgSetp Rule 1 Day Schedule,  !- Sunday Schedule:Day Name
    Medium Office HtgSetp Default Schedule,  !- Monday Schedule:Day Name
    Medium Office HtgSetp Default Schedule,  !- Tuesday Schedule:Day Name
    Medium Office HtgSetp Default Schedule,  !- Wednesday Schedule:Day Name
    Medium Office HtgSetp Default Schedule,  !- Thursday Schedule:Day Name
    Medium Office HtgSetp Default Schedule,  !- Friday Schedule:Day Name
    Medium Office HtgSetp Rule 2 Day Schedule,  !- Saturday Schedule:Day Name
    Medium Office HtgSetp Default Schedule,  !- Holiday Schedule:Day Name
    Medium Office HtgSetp Summer Design Day,  !- SummerDesignDay Schedule:Day Name
    Medium Office HtgSetp Winter Design Day,  !- WinterDesignDay Schedule:Day Name
    Medium Office HtgSetp Default Schedule,  !- CustomDay1 Schedule:Day Name
    Medium Office HtgSetp Default Schedule;  !- CustomDay2 Schedule:Day Name

  Schedule:Year,
    Medium Office HtgSetp,   !- Name
    Temperature 36,          !- Schedule Type Limits Name
    Medium Office HtgSetp Week Rule - Jan1-Dec31,  !- Schedule:Week Name 1
    1,                       !- Start Month 1
    1,                       !- Start Day 1
    12,                      !- End Month 1
    31;                      !- End Day 1

  Schedule:Day:Interval,
    Medium Office HtgSetp Summer Design Day,  !- Name
    Temperature 36,          !- Schedule Type Limits Name
    No,                      !- Interpolate to Timestep
    24:00,                   !- Time 1
    15.6;                    !- Value Until Time 1

  Schedule:Day:Interval,
    Medium Office HtgSetp Winter Design Day,  !- Name
    Temperature 36,          !- Schedule Type Limits Name
    No,                      !- Interpolate to Timestep
    24:00,                   !- Time 1
    21;                      !- Value Until Time 1

  ScheduleTypeLimits,
    Temperature 37,          !- Name
    ,                        !- Lower Limit Value
    ,                        !- Upper Limit Value
    Continuous,              !- Numeric Type
    temperature;             !- Unit Type

  Schedule:Day:Interval,
    Medium Office ClgSetp Rule 1 Day Schedule,  !- Name
    Temperature 37,          !- Schedule Type Limits Name
    No,                      !- Interpolate to Timestep
    24:00,                   !- Time 1
    26.7;                    !- Value Until Time 1

  Schedule:Day:Interval,
    Medium Office ClgSetp Default Schedule,  !- Name
    Temperature 37,          !- Schedule Type Limits Name
    No,                      !- Interpolate to Timestep
    06:00,                   !- Time 1
    26.7,                    !- Value Until Time 1
    22:00,                   !- Time 2
    24,                      !- Value Until Time 2
    24:00,                   !- Time 3
    26.7;                    !- Value Until Time 3

  Schedule:Day:Interval,
    Medium Office ClgSetp Rule 2 Day Schedule,  !- Name
    Temperature 37,          !- Schedule Type Limits Name
    No,                      !- Interpolate to Timestep
    06:00,                   !- Time 1
    26.7,                    !- Value Until Time 1
    18:00,                   !- Time 2
    24,                      !- Value Until Time 2
    24:00,                   !- Time 3
    26.7;                    !- Value Until Time 3

  Schedule:Week:Daily,
    Medium Office ClgSetp Week Rule - Jan1-Dec31,  !- Name
    Medium Office ClgSetp Rule 1 Day Schedule,  !- Sunday Schedule:Day Name
    Medium Office ClgSetp Default Schedule,  !- Monday Schedule:Day Name
    Medium Office ClgSetp Default Schedule,  !- Tuesday Schedule:Day Name
    Medium Office ClgSetp Default Schedule,  !- Wednesday Schedule:Day Name
    Medium Office ClgSetp Default Schedule,  !- Thursday Schedule:Day Name
    Medium Office ClgSetp Default Schedule,  !- Friday Schedule:Day Name
    Medium Office ClgSetp Rule 2 Day Schedule,  !- Saturday Schedule:Day Name
    Medium Office ClgSetp Default Schedule,  !- Holiday Schedule:Day Name
    Medium Office ClgSetp Summer Design Day,  !- SummerDesignDay Schedule:Day Name
    Medium Office ClgSetp Winter Design Day,  !- WinterDesignDay Schedule:Day Name
    Medium Office ClgSetp Default Schedule,  !- CustomDay1 Schedule:Day Name
    Medium Office ClgSetp Default Schedule;  !- CustomDay2 Schedule:Day Name

  Schedule:Year,
    Medium Office ClgSetp,   !- Name
    Temperature 37,          !- Schedule Type Limits Name
    Medium Office ClgSetp Week Rule - Jan1-Dec31,  !- Schedule:Week Name 1
    1,                       !- Start Month 1
    1,                       !- Start Day 1
    12,                      !- End Month 1
    31;                      !- End Day 1

  Schedule:Day:Interval,
    Medium Office ClgSetp Summer Design Day,  !- Name
    Temperature 37,          !- Schedule Type Limits Name
    No,                      !- Interpolate to Timestep
    06:00,                   !- Time 1
    26.7,                    !- Value Until Time 1
    22:00,                   !- Time 2
    24,                      !- Value Until Time 2
    24:00,                   !- Time 3
    26.7;                    !- Value Until Time 3

  Schedule:Day:Interval,
    Medium Office ClgSetp Winter Design Day,  !- Name
    Temperature 37,          !- Schedule Type Limits Name
    No,                      !- Interpolate to Timestep
    24:00,                   !- Time 1
    26.7;                    !- Value Until Time 1

  ZoneHVAC:EquipmentConnections,
    Thermal Zone 1,          !- Zone Name
    Thermal Zone 1 Equipment List,  !- Zone Conditioning Equipment List Name
    Thermal Zone 1 Inlet Node List,  !- Zone Air Inlet Node or NodeList Name
    Thermal Zone 1 Exhaust Node List,  !- Zone Air Exhaust Node or NodeList Name
    Node 1;                  !- Zone Air Node Name

  NodeList,
    Thermal Zone 1 Inlet Node List,  !- Name
    Node 956;                !- Node 1 Name

  NodeList,
    Thermal Zone 1 Exhaust Node List,  !- Name
    Node 955;                !- Node 1 Name

  Schedule:Constant,Always On Discrete,OnOff,1;

  Fan:OnOff,
    Fan On Off 58,           !- Name
    Always On Discrete,      !- Availability Schedule Name
    0.5,                     !- Fan Total Efficiency
    286.187258297872,        !- Pressure Rise {Pa}
    Autosize,                !- Maximum Flow Rate {m3/s}
    0.9,                     !- Motor Efficiency
    1,                       !- Motor In Airstream Fraction
    Zone HVAC Four Pipe Fan Coil 58 Mixed Air Node,  !- Air Inlet Node Name
    Zone HVAC Four Pipe Fan Coil 58 Fan Outlet Node,  !- Air Outlet Node Name
    Fan On Off Power Curve 57,  !- Fan Power Ratio Function of Speed Ratio Curve Name
    Fan On Off Efficiency Curve 57,  !- Fan Efficiency Ratio Function of Speed Ratio Curve Name
    General;                 !- End-Use Subcategory

  Curve:Exponent,
    Fan On Off Power Curve 57,  !- Name
    1,                       !- Coefficient1 Constant
    0,                       !- Coefficient2 Constant
    0,                       !- Coefficient3 Constant
    0,                       !- Minimum Value of x
    1;                       !- Maximum Value of x

  Curve:Cubic,
    Fan On Off Efficiency Curve 57,  !- Name
    1,                       !- Coefficient1 Constant
    0,                       !- Coefficient2 x
    0,                       !- Coefficient3 x**2
    0,                       !- Coefficient4 x**3
    0,                       !- Minimum Value of x
    1;                       !- Maximum Value of x

  Coil:Cooling:Water,
    Coil Cooling Water 58,   !- Name
    Always On Discrete,      !- Availability Schedule Name
    Autosize,                !- Design Water Flow Rate {m3/s}
    Autosize,                !- Design Air Flow Rate {m3/s}
    Autosize,                !- Design Inlet Water Temperature {C}
    Autosize,                !- Design Inlet Air Temperature {C}
    Autosize,                !- Design Outlet Air Temperature {C}
    Autosize,                !- Design Inlet Air Humidity Ratio {kgWater/kgDryAir}
    Autosize,                !- Design Outlet Air Humidity Ratio {kgWater/kgDryAir}
    Node 951,                !- Water Inlet Node Name
    Node 952,                !- Water Outlet Node Name
    Zone HVAC Four Pipe Fan Coil 58 Fan Outlet Node,  !- Air Inlet Node Name
    Zone HVAC Four Pipe Fan Coil 58 Cooling Coil Outlet Node,  !- Air Outlet Node Name
    SimpleAnalysis,          !- Type of Analysis
    CrossFlow;               !- Heat Exchanger Configuration

  Coil:Heating:Water,
    Coil Heating Water 58,   !- Name
    Always On Discrete,      !- Availability Schedule Name
    Autosize,                !- U-Factor Times Area Value {W/K}
    Autosize,                !- Maximum Water Flow Rate {m3/s}
    Node 953,                !- Water Inlet Node Name
    Node 954,                !- Water Outlet Node Name
    Zone HVAC Four Pipe Fan Coil 58 Cooling Coil Outlet Node,  !- Air Inlet Node Name
    Node 956,                !- Air Outlet Node Name
    UFactorTimesAreaAndDesignWaterFlowRate,  !- Performance Input Method
    Autosize,                !- Rated Capacity {W}
    82.2,                    !- Rated Inlet Water Temperature {C}
    16.6,                    !- Rated Inlet Air Temperature {C}
    71.1,                    !- Rated Outlet Water Temperature {C}
    32.2,                    !- Rated Outlet Air Temperature {C}
    0.5;                     !- Rated Ratio for Air and Water Convection

  ZoneHVAC:FourPipeFanCoil,
    Zone HVAC Four Pipe Fan Coil 58,  !- Name
    Always On Discrete,      !- Availability Schedule Name
    CyclingFan,              !- Capacity Control Method
    Autosize,                !- Maximum Supply Air Flow Rate {m3/s}
    ,                        !- Low Speed Supply Air Flow Ratio
    ,                        !- Medium Speed Supply Air Flow Ratio
    0,                       !- Maximum Outdoor Air Flow Rate {m3/s}
    ,                        !- Outdoor Air Schedule Name
    Node 955,                !- Air Inlet Node Name
    Node 956,                !- Air Outlet Node Name
    OutdoorAir:Mixer,        !- Outdoor Air Mixer Object Type
    Zone HVAC Four Pipe Fan Coil 58 OA Mixer,  !- Outdoor Air Mixer Name
    Fan:OnOff,               !- Supply Air Fan Object Type
    Fan On Off 58,           !- Supply Air Fan Name
    Coil:Cooling:Water,      !- Cooling Coil Object Type
    Coil Cooling Water 58,   !- Cooling Coil Name
    Autosize,                !- Maximum Cold Water Flow Rate {m3/s}
    ,                        !- Minimum Cold Water Flow Rate {m3/s}
    ,                        !- Cooling Convergence Tolerance
    Coil:Heating:Water,      !- Heating Coil Object Type
    Coil Heating Water 58,   !- Heating Coil Name
    Autosize,                !- Maximum Hot Water Flow Rate {m3/s}
    ,                        !- Minimum Hot Water Flow Rate {m3/s}
    ,                        !- Heating Convergence Tolerance
    ,                        !- Availability Manager List Name
    ,                        !- Design Specification ZoneHVAC Sizing Object Name
    ,                        !- Supply Air Fan Operating Mode Schedule Name
    Autosize,                !- Minimum Supply Air Temperature in Cooling Mode {C}
    Autosize;                !- Maximum Supply Air Temperature in Heating Mode {C}

  OutdoorAir:Mixer,
    Zone HVAC Four Pipe Fan Coil 58 OA Mixer,  !- Name
    Zone HVAC Four Pipe Fan Coil 58 Mixed Air Node,  !- Mixed Air Node Name
    Zone HVAC Four Pipe Fan Coil 58 OA Node,  !- Outdoor Air Stream Node Name
    Zone HVAC Four Pipe Fan Coil 58 Relief Air Node,  !- Relief Air Stream Node Name
    Node 955;                !- Return Air Stream Node Name

  OutdoorAir:NodeList,
    Zone HVAC Four Pipe Fan Coil 58 OA Node;  !- Node or NodeList Name 1

  ZoneHVAC:EquipmentList,
    Thermal Zone 1 Equipment List,  !- Name
    SequentialLoad,          !- Load Distribution Scheme
    ZoneHVAC:FourPipeFanCoil,!- Zone Equipment 1 Object Type
    Zone HVAC Four Pipe Fan Coil 58,  !- Zone Equipment 1 Name
    1,                       !- Zone Equipment 1 Cooling Sequence
    1,                       !- Zone Equipment 1 Heating or No-Load Sequence
    ,                        !- Zone Equipment 1 Sequential Cooling Fraction