  Version,9.1;

  Timestep,6;

  LifeCycleCost:Parameters,
    Life Cycle Cost Parameters,  !- Name
    EndOfYear,               !- Discounting Convention
    ConstantDollar,          !- Inflation Approach
    0.03,                    !- Real Discount Rate
    ,                        !- Nominal Discount Rate
    ,                        !- Inflation
    ,                        !- Base Date Month
    2011,                    !- Base Date Year
    ,                        !- Service Date Month
    2011,                    !- Service Date Year
    25,                      !- Length of Study Period in Years
    ,                        !- Tax rate
    None;                    !- Depreciation Method

  LifeCycleCost:UsePriceEscalation,
    U.S. Avg  Commercial-Electricity,  !- LCC Price Escalation Name
    Electricity,             !- Resource
    2011,                    !- Escalation Start Year
    January,                 !- Escalation Start Month
    0.9838,                  !- Year 1 Escalation
    0.9730,                  !- Year 2 Escalation
    0.9632,                  !- Year 3 Escalation
    0.9611,                  !- Year 4 Escalation
    0.9571,                  !- Year 5 Escalation
    0.9553,                  !- Year 6 Escalation
    0.9539,                  !- Year 7 Escalation
    0.9521,                  !- Year 8 Escalation
    0.9546,                  !- Year 9 Escalation
    0.9550,                  !- <none>
    0.9553,                  !- <none>
    0.9564,                  !- <none>
    0.9575,                  !- <none>
    0.9596,                  !- <none>
    0.9618,                  !- <none>
    0.9614,                  !- <none>
    0.9618,                  !- <none>
    0.9618,                  !- <none>
    0.9593,                  !- <none>
    0.9589,                  !- <none>
    0.9607,                  !- <none>
    0.9625,                  !- <none>
    0.9650,                  !- <none>
    0.9708,                  !- <none>
    0.9751,                  !- <none>
    0.9762,                  !- <none>
    0.9766,                  !- <none>
    0.9766,                  !- <none>
    0.9769,                  !- <none>
    0.9773;                  !- <none>

  LifeCycleCost:UsePriceEscalation,
    U.S. Avg  Commercial-Distillate Oil,  !- LCC Price Escalation Name
    FuelOil#1,               !- Resource
    2011,                    !- Escalation Start Year
    January,                 !- Escalation Start Month
    0.9714,                  !- Year 1 Escalation
    0.9730,                  !- Year 2 Escalation
    0.9942,                  !- Year 3 Escalation
    1.0164,                  !- Year 4 Escalation
    1.0541,                  !- Year 5 Escalation
    1.0928,                  !- Year 6 Escalation
    1.1267,                  !- Year 7 Escalation
    1.1580,                  !- Year 8 Escalation
    1.1792,                  !- Year 9 Escalation
    1.1967,                  !- <none>
    1.2200,                  !- <none>
    1.2333,                  !- <none>
    1.2566,                  !- <none>
    1.2709,                  !- <none>
    1.2826,                  !- <none>
    1.2985,                  !- <none>
    1.3102,                  !- <none>
    1.3250,                  !- <none>
    1.3261,                  !- <none>
    1.3282,                  !- <none>
    1.3324,                  !- <none>
    1.3356,                  !- <none>
    1.3431,                  !- <none>
    1.3510,                  !- <none>
    1.3568,                  !- <none>
    1.3606,                  !- <none>
    1.3637,                  !- <none>
    1.3674,                  !- <none>
    1.3706,                  !- <none>
    1.3743;                  !- <none>

  LifeCycleCost:UsePriceEscalation,
    U.S. Avg  Commercial-Residual Oil,  !- LCC Price Escalation Name
    FuelOil#2,               !- Resource
    2011,                    !- Escalation Start Year
    January,                 !- Escalation Start Month
    0.8469,                  !- Year 1 Escalation
    0.8257,                  !- Year 2 Escalation
    0.8681,                  !- Year 3 Escalation
    0.8988,                  !- Year 4 Escalation
    0.9289,                  !- Year 5 Escalation
    0.9604,                  !- Year 6 Escalation
    0.9897,                  !- Year 7 Escalation
    1.0075,                  !- Year 8 Escalation
    1.0314,                  !- Year 9 Escalation
    1.0554,                  !- <none>
    1.0861,                  !- <none>
    1.1278,                  !- <none>
    1.1497,                  !- <none>
    1.1620,                  !- <none>
    1.1743,                  !- <none>
    1.1852,                  !- <none>
    1.1948,                  !- <none>
    1.2037,                  !- <none>
    1.2071,                  !- <none>
    1.2119,                  !- <none>
    1.2139,                  !- <none>
    1.2194,                  !- <none>
    1.2276,                  !- <none>
    1.2365,                  !- <none>
    1.2420,                  !- <none>
    1.2461,                  !- <none>
    1.2509,                  !- <none>
    1.2550,                  !- <none>
    1.2591,                  !- <none>
    1.2638;                  !- <none>

  LifeCycleCost:UsePriceEscalation,
    U.S. Avg  Commercial-Natural gas,  !- LCC Price Escalation Name
    NaturalGas,              !- Resource
    2011,                    !- Escalation Start Year
    January,                 !- Escalation Start Month
    0.9823,                  !- Year 1 Escalation
    0.9557,                  !- Year 2 Escalation
    0.9279,                  !- Year 3 Escalation
    0.9257,                  !- Year 4 Escalation
    0.9346,                  !- Year 5 Escalation
    0.9412,                  !- Year 6 Escalation
    0.9512,                  !- Year 7 Escalation
    0.9645,                  !- Year 8 Escalation
    0.9856,                  !- Year 9 Escalation
    1.0067,                  !- <none>
    1.0222,                  !- <none>
    1.0410,                  !- <none>
    1.0610,                  !- <none>
    1.0787,                  !- <none>
    1.0942,                  !- <none>
    1.1098,                  !- <none>
    1.1220,                  !- <none>
    1.1308,                  !- <none>
    1.1386,                  !- <none>
    1.1486,                  !- <none>
    1.1619,                  !- <none>
    1.1763,                  !- <none>
    1.1918,                  !- <none>
    1.2118,                  !- <none>
    1.2284,                  !- <none>
    1.2439,                  !- <none>
    1.2605,                  !- <none>
    1.2772,                  !- <none>
    1.2938,                  !- <none>
    1.3115;                  !- <none>

  LifeCycleCost:UsePriceEscalation,
    U.S. Avg  Commercial-Coal,  !- LCC Price Escalation Name
    Coal,                    !- Resource
    2011,                    !- Escalation Start Year
    January,                 !- Escalation Start Month
    0.9970,                  !- Year 1 Escalation
    1.0089,                  !- Year 2 Escalation
    1.0089,                  !- Year 3 Escalation
    0.9941,                  !- Year 4 Escalation
    0.9941,                  !- Year 5 Escalation
    1.0000,                  !- Year 6 Escalation
    1.0030,                  !- Year 7 Escalation
    1.0059,                  !- Year 8 Escalation
    1.0089,                  !- Year 9 Escalation
    1.0119,                  !- <none>
    1.0148,                  !- <none>
    1.0178,                  !- <none>
    1.0208,                  !- <none>
    1.0267,                  !- <none>
    1.0297,                  !- <none>
    1.0356,                  !- <none>
    1.0415,                  !- <none>
    1.0534,                  !- <none>
    1.0564,                  !- <none>
    1.0593,                  !- <none>
    1.0653,                  !- <none>
    1.0712,                  !- <none>
    1.0742,                  !- <none>
    1.0801,                  !- <none>
    1.0831,                  !- <none>
    1.0831,                  !- <none>
    1.0861,                  !- <none>
    1.0890,                  !- <none>
    1.0920,                  !- <none>
    1.0950;                  !- <none>

  Building,
    Building 1,              !- Name
    ,                        !- North Axis {deg}
    ,                        !- Terrain
    ,                        !- Loads Convergence Tolerance Value
    ,                        !- Temperature Convergence Tolerance Value {deltaC}
    ,                        !- Solar Distribution
    ,                        !- Maximum Number of Warmup Days
    ;                        !- Minimum Number of Warmup Days

  Zone,
    Thermal Zone 1,          !- Name
    ,                        !- Direction of Relative North {deg}
    30.48,                   !- X Origin {m}
    0,                       !- Y Origin {m}
    0,                       !- Z Origin {m}
    ,                        !- Type
    ,                        !- Multiplier
    ,                        !- Ceiling Height {m}
    ,                        !- Volume {m3}
    ,                        !- Floor Area {m2}
    ,                        !- Zone Inside Convection Algorithm
    ;                        !- Zone Outside Convection Algorithm

  BuildingSurface:Detailed,
    Surface 1,               !- Name
    Floor,                   !- Surface Type
    Construction Internal Source 58,  !- Construction Name
    Thermal Zone 1,          !- Zone Name
    Ground,                  !- Outside Boundary Condition
    ,                        !- Outside Boundary Condition Object
    NoSun,                   !- Sun Exposure
    NoWind,                  !- Wind Exposure
    ,                        !- View Factor to Ground
    ,                        !- Number of Vertices
    -4.572,4.572,0,  !- X,Y,Z ==> Vertex 1 {m}
    0,0,0,  !- X,Y,Z ==> Vertex 2 {m}
    -30.48,0,0,  !- X,Y,Z ==> Vertex 3 {m}
    -25.908,4.572,0;  !- X,Y,Z ==> Vertex 4 {m}

  BuildingSurface:Detailed,
    Surface 2,               !- Name
    Wall,                    !- Surface Type
    ASHRAE 90.1-2010 ExtWall Mass ClimateZone 5,  !- Construction Name
    Thermal Zone 1,          !- Zone Name
    Outdoors,                !- Outside Boundary Condition
    ,                        !- Outside Boundary Condition Object
    SunExposed,              !- Sun Exposure
    WindExposed,             !- Wind Exposure
    ,                        !- View Factor to Ground
    ,                        !- Number of Vertices
    -30.48,0,3.048,  !- X,Y,Z ==> Vertex 1 {m}
    -30.48,0,0,  !- X,Y,Z ==> Vertex 2 {m}
    0,0,0,  !- X,Y,Z ==> Vertex 3 {m}
    0,0,3.048;  !- X,Y,Z ==> Vertex 4 {m}

  FenestrationSurface:Detailed,
    Sub Surface 67,          !- Name
    Window,                  !- Surface Type
    ASHRAE 90.1-2010 ExtWindow Metal ClimateZone 4-6,  !- Construction Name
    Surface 2,               !- Building Surface Name
    ,                        !- Outside Boundary Condition Object
    ,                        !- View Factor to Ground
    ,                        !- Frame and Divider Name
    ,                        !- Multiplier
    ,                        !- Number of Vertices
    -30.4546,0,1.98123539232053,  !- X,Y,Z ==> Vertex 1 {m}
    -30.4546,0,0.76,  !- X,Y,Z ==> Vertex 2 {m}
    -0.0253999999999976,0,0.76,  !- X,Y,Z ==> Vertex 3 {m}
    -0.0253999999999976,0,1.98123539232053;  !- X,Y,Z ==> Vertex 4 {m}

  BuildingSurface:Detailed,
    Surface 3,               !- Name
    Wall,                    !- Surface Type
    Interior Wall,           !- Construction Name
    Thermal Zone 1,          !- Zone Name
    Surface,                 !- Outside Boundary Condition
    Surface 9,               !- Outside Boundary Condition Object
    NoSun,                   !- Sun Exposure
    NoWind,                  !- Wind Exposure
    ,                        !- View Factor to Ground
    ,                        !- Number of Vertices
    -25.908,4.572,3.048,  !- X,Y,Z ==> Vertex 1 {m}
    -25.908,4.572,0,  !- X,Y,Z ==> Vertex 2 {m}
    -30.48,-2.04187384066908e-15,0,  !- X,Y,Z ==> Vertex 3 {m}
    -30.48,-2.04187384066908e-15,3.048;  !- X,Y,Z ==> Vertex 4 {m}

  BuildingSurface:Detailed,
    Surface 4,               !- Name
    Wall,                    !- Surface Type
    Interior Wall,           !- Construction Name
    Thermal Zone 1,          !- Zone Name
    Surface,                 !- Outside Boundary Condition
    Surface 22,              !- Outside Boundary Condition Object
    NoSun,                   !- Sun Exposure
    NoWind,                  !- Wind Exposure
    ,                        !- View Factor to Ground
    ,                        !- Number of Vertices
    -4.572,4.572,3.048,  !- X,Y,Z ==> Vertex 1 {m}
    -4.572,4.572,0,  !- X,Y,Z ==> Vertex 2 {m}
    -25.908,4.572,0,  !- X,Y,Z ==> Vertex 3 {m}
    -25.908,4.572,3.048;  !- X,Y,Z ==> Vertex 4 {m}

  BuildingSurface:Detailed,
    Surface 5,               !- Name
    Wall,                    !- Surface Type
    Interior Wall,           !- Construction Name
    Thermal Zone 1,          !- Zone Name
    Surface,                 !- Outside Boundary Condition
    Surface 15,              !- Outside Boundary Condition Object
    NoSun,                   !- Sun Exposure
    NoWind,                  !- Wind Exposure
    ,                        !- View Factor to Ground
    ,                        !- Number of Vertices
    0,0,3.048,  !- X,Y,Z ==> Vertex 1 {m}
    0,0,0,  !- X,Y,Z ==> Vertex 2 {m}
    -4.572,4.572,0,  !- X,Y,Z ==> Vertex 3 {m}
    -4.572,4.572,3.048;  !- X,Y,Z ==> Vertex 4 {m}

  BuildingSurface:Detailed,
    Surface 6,               !- Name
    Ceiling,                 !- Surface Type
    Construction Internal Source 97 Reversed,  !- Construction Name
    Thermal Zone 1,          !- Zone Name
    Surface,                 !- Outside Boundary Condition
    Surface 31,              !- Outside Boundary Condition Object
    NoSun,                   !- Sun Exposure
    NoWind,                  !- Wind Exposure
    ,                        !- View Factor to Ground
    ,                        !- Number of Vertices
    0,0,3.048,  !- X,Y,Z ==> Vertex 1 {m}
    -4.572,4.572,3.048,  !- X,Y,Z ==> Vertex 2 {m}
    -25.908,4.572,3.048,  !- X,Y,Z ==> Vertex 3 {m}
    -30.48,0,3.048;  !- X,Y,Z ==> Vertex 4 {m}

  ZoneHVAC:EquipmentConnections,
    Thermal Zone 1,          !- Zone Name
    Thermal Zone 1 Equipment List,  !- Zone Conditioning Equipment List Name
    ,                        !- Zone Air Inlet Node or NodeList Name
    ,                        !- Zone Air Exhaust Node or NodeList Name
    Node 1;                  !- Zone Air Node Name

  ZoneHVAC:LowTemperatureRadiant:VariableFlow,
    Zone HVAC Low Temperature Radiant Variable Flow 58,  !- Name
    Always On Discrete,      !- Availability Schedule Name
    Thermal Zone 1,          !- Zone Name
    Zone HVAC Low Temperature Radiant Variable Flow 58Floors,  !- Surface Name or Radiant Surface Group Name
    0.012,                   !- Hydronic Tubing Inside Diameter {m}
    Autosize,                !- Hydronic Tubing Length {m}
    MeanRadiantTemperature,  !- Temperature Control Type
    HeatingDesignCapacity,   !- Heating Design Capacity Method
    Autosize,                !- Heating Design Capacity {W}
    ,                        !- Heating Design Capacity Per Floor Area {W/m2}
    ,                        !- Fraction of Autosized Heating Design Capacity
    Autosize,                !- Maximum Hot Water Flow {m3/s}
    Node 931,                !- Heating Water Inlet Node Name
    Node 932,                !- Heating Water Outlet Node Name
    0.5,                     !- Heating Control Throttling Range {deltaC}
    AEDG Office Mean Radiant Heating Setpoint Schedule,  !- Heating Control Temperature Schedule Name
    CoolingDesignCapacity,   !- Cooling Design Capacity Method
    Autosize,                !- Cooling Design Capacity {W}
    ,                        !- Cooling Design Capacity Per Floor Area {W/m2}
    ,                        !- Fraction of Autosized Cooling Design Capacity
    Autosize,                !- Maximum Cold Water Flow {m3/s}
    Node 933,                !- Cooling Water Inlet Node Name
    Node 934,                !- Cooling Water Outlet Node Name
    0.5,                     !- Cooling Control Throttling Range {deltaC}
    AEDG Office Mean Radiant Cooling Setpoint Schedule,  !- Cooling Control Temperature Schedule Name
    SimpleOff,               !- Condensation Control Type
    1,                       !- Condensation Control Dewpoint Offset {C}
    OnePerSurface,           !- Number of Circuits
    106.7;                   !- Circuit Length {m}

  Schedule:Constant,Always On Discrete,OnOff,1;

  ZoneHVAC:LowTemperatureRadiant:SurfaceGroup,
    Zone HVAC Low Temperature Radiant Variable Flow 58Floors,  !- Name
    Surface 1,               !- Surface 1 Name
    1;                       !- Flow Fraction for Surface 1

  ScheduleTypeLimits,
    Temperature 37,          !- Name
    ,                        !- Lower Limit Value
    ,                        !- Upper Limit Value
    Continuous,              !- Numeric Type
    temperature;             !- Unit Type

  Schedule:Day:Interval,
    AEDG Office Mean Radiant Heating Setpoint Schedule Sunday,  !- Name
    Temperature 37,          !- Schedule Type Limits Name
    No,                      !- Interpolate to Timestep
    24:00,                   !- Time 1
    18.3;                    !- Value Until Time 1

  Schedule:Day:Interval,
    AEDG Office Mean Radiant Heating Setpoint Schedule Weekday,  !- Name
    Temperature 37,          !- Schedule Type Limits Name
    No,                      !- Interpolate to Timestep
    06:00,                   !- Time 1
    18.3,                    !- Value Until Time 1
    22:00,                   !- Time 2
    18.8,                    !- Value Until Time 2
    24:00,                   !- Time 3
    18.3;                    !- Value Until Time 3

  Schedule:Day:Interval,
    AEDG Office Mean Radiant Heating Setpoint Schedule Saturday,  !- Name
    Temperature 37,          !- Schedule Type Limits Name
    No,                      !- Interpolate to Timestep
    06:00,                   !- Time 1
    18.3,                    !- Value Until Time 1
    18:00,                   !- Time 2
    18.8,                    !- Value Until Time 2
    24:00,                   !- Time 3
    18.3;                    !- Value Until Time 3

  Schedule:Week:Daily,
    AEDG Office Mean Radiant Heating Setpoint Schedule Week Rule - Jan1-Dec31,  !- Name
    AEDG Office Mean Radiant Heating Setpoint Schedule Sunday,  !- Sunday Schedule:Day Name
    AEDG Office Mean Radiant Heating Setpoint Schedule Weekday,  !- Monday Schedule:Day Name
    AEDG Office Mean Radiant Heating Setpoint Schedule Weekday,  !- Tuesday Schedule:Day Name
    AEDG Office Mean Radiant Heating Setpoint Schedule Weekday,  !- Wednesday Schedule:Day Name
    AEDG Office Mean Radiant Heating Setpoint Schedule Weekday,  !- Thursday Schedule:Day Name
    AEDG Office Mean Radiant Heating Setpoint Schedule Weekday,  !- Friday Schedule:Day Name
    AEDG Office Mean Radiant Heating Setpoint Schedule Saturday,  !- Saturday Schedule:Day Name
    AEDG Office Mean Radiant Heating Setpoint Schedule Weekday,  !- Holiday Schedule:Day Name
    AEDG Office Mean Radiant Heating Setpoint Schedule Summer Design Day,  !- SummerDesignDay Schedule:Day Name
    AEDG Office Mean Radiant Heating Setpoint Schedule Winter Design Day,  !- WinterDesignDay Schedule:Day Name
    AEDG Office Mean Radiant Heating Setpoint Schedule Weekday,  !- CustomDay1 Schedule:Day Name
    AEDG Office Mean Radiant Heating Setpoint Schedule Weekday;  !- CustomDay2 Schedule:Day Name

  Schedule:Year,
    AEDG Office Mean Radiant Heating Setpoint Schedule,  !- Name
    Temperature 37,          !- Schedule Type Limits Name
    AEDG Office Mean Radiant Heating Setpoint Schedule Week Rule - Jan1-Dec31,  !- Schedule:Week Name 1
    1,                       !- Start Month 1
    1,                       !- Start Day 1
    12,                      !- End Month 1
    31;                      !- End Day 1

  Schedule:Day:Interval,
    AEDG Office Mean Radiant Heating Setpoint Schedule Summer Design Day,  !- Name
    Temperature 37,          !- Schedule Type Limits Name
    No,                      !- Interpolate to Timestep
    06:00,                   !- Time 1
    18.3,                    !- Value Until Time 1
    22:00,                   !- Time 2
    18.8,                    !- Value Until Time 2
    24:00,                   !- Time 3
    18.3;                    !- Value Until Time 3

  Schedule:Day:Interval,
    AEDG Office Mean Radiant Heating Setpoint Schedule Winter Design Day,  !- Name
    Temperature 37,          !- Schedule Type Limits Name
    No,                      !- Interpolate to Timestep
    24:00,                   !- Time 1
    18.8;                    !- Value Until Time 1

  Schedule:Day:Interval,
    AEDG Office Mean Radiant Cooling Setpoint Schedule Sunday,  !- Name
    Temperature 37,          !- Schedule Type Limits Name
    No,                      !- Interpolate to Timestep
    24:00,                   !- Time 1
    26.7;                    !- Value Until Time 1

  Schedule:Day:Interval,
    AEDG Office Mean Radiant Cooling Setpoint Schedule Weekday,  !- Name
    Temperature 37,          !- Schedule Type Limits Name
    No,                      !- Interpolate to Timestep
    06:00,                   !- Time 1
    26.7,                    !- Value Until Time 1
    22:00,                   !- Time 2
    24,                      !- Value Until Time 2
    24:00,                   !- Time 3
    26.7;                    !- Value Until Time 3

  Schedule:Day:Interval,
    AEDG Office Mean Radiant Cooling Setpoint Schedule Saturday,  !- Name
    Temperature 37,          !- Schedule Type Limits Name
    No,                      !- Interpolate to Timestep
    06:00,                   !- Time 1
    26.7,                    !- Value Until Time 1
    18:00,                   !- Time 2
    24,                      !- Value Until Time 2
    24:00,                   !- Time 3
    26.7;                    !- Value Until Time 3

  Schedule:Week:Daily,
    AEDG Office Mean Radiant Cooling Setpoint Schedule Week Rule - Jan1-Dec31,  !- Name
    AEDG Office Mean Radiant Cooling Setpoint Schedule Sunday,  !- Sunday Schedule:Day Name
    AEDG Office Mean Radiant Cooling Setpoint Schedule Weekday,  !- Monday Schedule:Day Name
    AEDG Office Mean Radiant Cooling Setpoint Schedule Weekday,  !- Tuesday Schedule:Day Name
    AEDG Office Mean Radiant Cooling Setpoint Schedule Weekday,  !- Wednesday Schedule:Day Name
    AEDG Office Mean Radiant Cooling Setpoint Schedule Weekday,  !- Thursday Schedule:Day Name
    AEDG Office Mean Radiant Cooling Setpoint Schedule Weekday,  !- Friday Schedule:Day Name
    AEDG Office Mean Radiant Cooling Setpoint Schedule Saturday,  !- Saturday Schedule:Day Name
    AEDG Office Mean Radiant Cooling Setpoint Schedule Weekday,  !- Holiday Schedule:Day Name
    AEDG Office Mean Radiant Cooling Setpoint Schedule Summer Design Day,  !- SummerDesignDay Schedule:Day Name
    AEDG Office Mean Radiant Cooling Setpoint Schedule Winter Design Day,  !- WinterDesignDay Schedule:Day Name
    AEDG Office Mean Radiant Cooling Setpoint Schedule Weekday,  !- CustomDay1 Schedule:Day Name
    AEDG Office Mean Radiant Cooling Setpoint Schedule Weekday;  !- CustomDay2 Schedule:Day Name

  Schedule:Year,
    AEDG Office Mean Radiant Cooling Setpoint Schedule,  !- Name
    Temperature 37,          !- Schedule Type Limits Name
    AEDG Office Mean Radiant Cooling Setpoint Schedule Week Rule - Jan1-Dec31,  !- Schedule:Week Name 1
    1,                       !- Start Month 1
    1,                       !- Start Day 1
    12,                      !- End Month 1
    31;                      !- End Day 1

  Schedule:Day:Interval,
    AEDG Office Mean Radiant Cooling Setpoint Schedule Summer Design Day,  !- Name
    Temperature 37,          !- Schedule Type Limits Name
    No,                      !- Interpolate to Timestep
    24:00,                   !- Time 1
    24;                      !- Value Until Time 1

  Schedule:Day:Interval,
    AEDG Office Mean Radiant Cooling Setpoint Schedule Winter Design Day,  !- Name
    Temperature 37,          !- Schedule Type Limits Name
    No,                      !- Interpolate to Timestep
    06:00,                   !- Time 1
    26.7,                    !- Value Until Time 1
    22:00,                   !- Time 2
    24,                      !- Value Until Time 2
    24:00,                   !- Time 3
    26.7;                    !- Value Until Time 3

  ZoneHVAC:EquipmentList,
    Thermal Zone 1 Equipment List,  !- Name
    SequentialLoad,          !- Load Distribution Scheme
    ZoneHVAC:LowTemperatureRadiant:VariableFlow,  !- Zone Equipment 1 Object Type
    Zone HVAC Low Temperature Radiant Variable Flow 58,  !- Zone Equipment 1 Name
    1,                       !- Zone Equipment 1 Cooling Sequence
    1,                       !- Zone Equipment 1 Heating or No-Load Sequence
    ,                        !- Zone Equipment 1 Sequential Cooling Fraction
    ;                        !- Zone Equipment 1 Sequential Heating Fraction

  Sizing:Zone,
    Thermal Zone 1,          !- Zone or ZoneList Name
    SupplyAirTemperature,    !- Zone Cooling Design Supply Air Temperature Input Method
    14,                      !- Zone Cooling Design Supply Air Temperature {C}
    11.11,                   !- Zone Cooling Design Supply Air Temperature Difference {deltaC}
    SupplyAirTemperature,    !- Zone Heating Design Supply Air Temperature Input Method
    40,                      !- Zone Heating Design Supply Air Temperature {C}
    11.11,                   !- Zone Heating Design Supply Air Temperature Difference {deltaC}
    0.0085,                  !- Zone Cooling Design Supply Air Humidity Ratio {kgWater/kgDryAir}
    0.008,                   !- Zone Heating Design Supply Air Humidity Ratio {kgWater/kgDryAir}
    90.1-2010 - Office - OpenOffice Ventilation,  !- Design Specification Outdoor Air Object Name
    1.25,                    !- Zone Heating Sizing Factor
    1.15,                    !- Zone Cooling Sizing Factor
    DesignDay,               !- Cooling Design Air Flow Method
    0,                       !- Cooling Design Air Flow Rate {m3/s}
    0.000762,                !- Cooling Minimum Air Flow per Zone Floor Area {m3/s-m2}
    0,                       !- Cooling Minimum Air Flow {m3/s}
    0,                       !- Cooling Minimum Air Flow Fraction
    DesignDay,               !- Heating Design Air Flow Method
    0,                       !- Heating Design Air Flow Rate {m3/s}
    0.002032,                !- Heating Maximum Air Flow per Zone Floor Area {m3/s-m2}
    0.1415762,               !- Heating Maximum Air Flow {m3/s}
    0.3,                     !- Heating Maximum Air Flow Fraction
    Thermal Zone 1 Design Spec Zone Air Dist,  !- Design Specification Zone Air Distribution Object Name
    No;                      !- Account for Dedicated Outdoor Air System

  DesignSpecification:ZoneAirDistribution,
    Thermal Zone 1 Design Spec Zone Air Dist,  !- Name
    1,                       !- Zone Air Distribution Effectiveness in Cooling Mode {dimensionless}
    1;                       !- Zone Air Distribution Effectiveness in Heating Mode {dimensionless}

  DesignSpecification:OutdoorAir,
    90.1-2010 - Office - OpenOffice Ventilation,  !- Name
    Sum,                     !- Outdoor Air Method
    0.002359737216,          !- Outdoor Air Flow per Person {m3/s-person}
    0.0003048,               !- Outdoor Air Flow per Zone Floor Area {m3/s-m2}
    0,                       !- Outdoor Air Flow per Zone {m3/s}
    0;                       !- Outdoor Air Flow Air Changes per Hour {1/hr}

  Zone,
    Thermal Zone 10,         !- Name
    ,                        !- Direction of Relative North {deg}
    0,                       !- X Origin {m}
    15.24,                   !- Y Origin {m}
    3.048,                   !- Z Origin {m}
    ,                        !- Type
    ,                        !- Multiplier
    ,                        !- Ceiling Height {m}
    ,                        !- Volume {m3}
    ,                        !- Floor Area {m2}
    ,                        !- Zone Inside Convection Algorithm
    ;                        !- Zone Outside Convection Algorithm

  BuildingSurface:Detailed,
    Surface 55,              !- Name
    Floor,                   !- Surface Type
    Construction Internal Source 96,  !- Construction Name
    Thermal Zone 10,         !- Zone Name
    Surface,                 !- Outside Boundary Condition
    Surface 30,              !- Outside Boundary Condition Object
    NoSun,                   !- Sun Exposure
    NoWind,                  !- Wind Exposure
    ,                        !- View Factor to Ground
    ,                        !- Number of Vertices
    30.48,0,0,  !- X,Y,Z ==> Vertex 1 {m}
    25.908,-4.572,0,  !- X,Y,Z ==> Vertex 2 {m}
    4.572,-4.572,0,  !- X,Y,Z ==> Vertex 3 {m}
    0,0,0;  !- X,Y,Z ==> Vertex 4 {m}

  BuildingSurface:Detailed,
    Surface 56,              !- Name
    Wall,                    !- Surface Type
    ASHRAE 90.1-2010 ExtWall Mass ClimateZone 5,  !- Construction Name
    Thermal Zone 10,         !- Zone Name
    Outdoors,                !- Outside Boundary Condition
    ,                        !- Outside Boundary Condition Object
    SunExposed,              !- Sun Exposure
    WindExposed,             !- Wind Exposure
    ,                        !- View Factor to Ground
    ,                        !- Number of Vertices