  Version,9.1;

  Timestep,6;

  LifeCycleCost:Parameters,
    Life Cycle Cost Parameters,  !- Name
    EndOfYear,               !- Discounting Convention
    ConstantDollar,          !- Inflation Approach
    0.03,                    !- Real Discount Rate
    ,                        !- Nominal Discount Rate
    ,                        !- Inflation
    ,                        !- Base Date Month
    2011,                    !- Base Date Year
    ,                        !- Service Date Month
    2011,                    !- Service Date Year
    25,                      !- Length of Study Period in Years
    ,                        !- Tax rate
    None;                    !- Depreciation Method

  LifeCycleCost:UsePriceEscalation,
    U.S. Avg  Commercial-Electricity,  !- LCC Price Escalation Name
    Electricity,             !- Resource
    2011,                    !- Escalation Start Year
    January,                 !- Escalation Start Month
    0.9838,                  !- Year 1 Escalation
    0.9730,                  !- Year 2 Escalation
    0.9632,                  !- Year 3 Escalation
    0.9611,                  !- Year 4 Escalation
    0.9571,                  !- Year 5 Escalation
    0.9553,                  !- Year 6 Escalation
    0.9539,                  !- Year 7 Escalation
    0.9521,                  !- Year 8 Escalation
    0.9546,                  !- Year 9 Escalation
    0.9550,                  !- <none>
    0.9553,                  !- <none>
    0.9564,                  !- <none>
    0.9575,                  !- <none>
    0.9596,                  !- <none>
    0.9618,                  !- <none>
    0.9614,                  !- <none>
    0.9618,                  !- <none>
    0.9618,                  !- <none>
    0.9593,                  !- <none>
    0.9589,                  !- <none>
    0.9607,                  !- <none>
    0.9625,                  !- <none>
    0.9650,                  !- <none>
    0.9708,                  !- <none>
    0.9751,                  !- <none>
    0.9762,                  !- <none>
    0.9766,                  !- <none>
    0.9766,                  !- <none>
    0.9769,                  !- <none>
    0.9773;                  !- <none>

  LifeCycleCost:UsePriceEscalation,
    U.S. Avg  Commercial-Distillate Oil,  !- LCC Price Escalation Name
    FuelOil#1,               !- Resource
    2011,                    !- Escalation Start Year
    January,                 !- Escalation Start Month
    0.9714,                  !- Year 1 Escalation
    0.9730,                  !- Year 2 Escalation
    0.9942,                  !- Year 3 Escalation
    1.0164,                  !- Year 4 Escalation
    1.0541,                  !- Year 5 Escalation
    1.0928,                  !- Year 6 Escalation
    1.1267,                  !- Year 7 Escalation
    1.1580,                  !- Year 8 Escalation
    1.1792,                  !- Year 9 Escalation
    1.1967,                  !- <none>
    1.2200,                  !- <none>
    1.2333,                  !- <none>
    1.2566,                  !- <none>
    1.2709,                  !- <none>
    1.2826,                  !- <none>
    1.2985,                  !- <none>
    1.3102,                  !- <none>
    1.3250,                  !- <none>
    1.3261,                  !- <none>
    1.3282,                  !- <none>
    1.3324,                  !- <none>
    1.3356,                  !- <none>
    1.3431,                  !- <none>
    1.3510,                  !- <none>
    1.3568,                  !- <none>
    1.3606,                  !- <none>
    1.3637,                  !- <none>
    1.3674,                  !- <none>
    1.3706,                  !- <none>
    1.3743;                  !- <none>

  LifeCycleCost:UsePriceEscalation,
    U.S. Avg  Commercial-Residual Oil,  !- LCC Price Escalation Name
    FuelOil#2,               !- Resource
    2011,                    !- Escalation Start Year
    January,                 !- Escalation Start Month
    0.8469,                  !- Year 1 Escalation
    0.8257,                  !- Year 2 Escalation
    0.8681,                  !- Year 3 Escalation
    0.8988,                  !- Year 4 Escalation
    0.9289,                  !- Year 5 Escalation
    0.9604,                  !- Year 6 Escalation
    0.9897,                  !- Year 7 Escalation
    1.0075,                  !- Year 8 Escalation
    1.0314,                  !- Year 9 Escalation
    1.0554,                  !- <none>
    1.0861,                  !- <none>
    1.1278,                  !- <none>
    1.1497,                  !- <none>
    1.1620,                  !- <none>
    1.1743,                  !- <none>
    1.1852,                  !- <none>
    1.1948,                  !- <none>
    1.2037,                  !- <none>
    1.2071,                  !- <none>
    1.2119,                  !- <none>
    1.2139,                  !- <none>
    1.2194,                  !- <none>
    1.2276,                  !- <none>
    1.2365,                  !- <none>
    1.2420,                  !- <none>
    1.2461,                  !- <none>
    1.2509,                  !- <none>
    1.2550,                  !- <none>
    1.2591,                  !- <none>
    1.2638;                  !- <none>

  LifeCycleCost:UsePriceEscalation,
    U.S. Avg  Commercial-Natural gas,  !- LCC Price Escalation Name
    NaturalGas,              !- Resource
    2011,                    !- Escalation Start Year
    January,                 !- Escalation Start Month
    0.9823,                  !- Year 1 Escalation
    0.9557,                  !- Year 2 Escalation
    0.9279,                  !- Year 3 Escalation
    0.9257,                  !- Year 4 Escalation
    0.9346,                  !- Year 5 Escalation
    0.9412,                  !- Year 6 Escalation
    0.9512,                  !- Year 7 Escalation
    0.9645,                  !- Year 8 Escalation
    0.9856,                  !- Year 9 Escalation
    1.0067,                  !- <none>
    1.0222,                  !- <none>
    1.0410,                  !- <none>
    1.0610,                  !- <none>
    1.0787,                  !- <none>
    1.0942,                  !- <none>
    1.1098,                  !- <none>
    1.1220,                  !- <none>
    1.1308,                  !- <none>
    1.1386,                  !- <none>
    1.1486,                  !- <none>
    1.1619,                  !- <none>
    1.1763,                  !- <none>
    1.1918,                  !- <none>
    1.2118,                  !- <none>
    1.2284,                  !- <none>
    1.2439,                  !- <none>
    1.2605,                  !- <none>
    1.2772,                  !- <none>
    1.2938,                  !- <none>
    1.3115;                  !- <none>

  LifeCycleCost:UsePriceEscalation,
    U.S. Avg  Commercial-Coal,  !- LCC Price Escalation Name
    Coal,                    !- Resource
    2011,                    !- Escalation Start Year
    January,                 !- Escalation Start Month
    0.9970,                  !- Year 1 Escalation
    1.0089,                  !- Year 2 Escalation
    1.0089,                  !- Year 3 Escalation
    0.9941,                  !- Year 4 Escalation
    0.9941,                  !- Year 5 Escalation
    1.0000,                  !- Year 6 Escalation
    1.0030,                  !- Year 7 Escalation
    1.0059,                  !- Year 8 Escalation
    1.0089,                  !- Year 9 Escalation
    1.0119,                  !- <none>
    1.0148,                  !- <none>
    1.0178,                  !- <none>
    1.0208,                  !- <none>
    1.0267,                  !- <none>
    1.0297,                  !- <none>
    1.0356,                  !- <none>
    1.0415,                  !- <none>
    1.0534,                  !- <none>
    1.0564,                  !- <none>
    1.0593,                  !- <none>
    1.0653,                  !- <none>
    1.0712,                  !- <none>
    1.0742,                  !- <none>
    1.0801,                  !- <none>
    1.0831,                  !- <none>
    1.0831,                  !- <none>
    1.0861,                  !- <none>
    1.0890,                  !- <none>
    1.0920,                  !- <none>
    1.0950;                  !- <none>

  Building,
    -LargeOfficeDetailed-ASHRAE 169-2006-3C created: 2019-02-12 12:53:42 -0800,  !- Name
    0,                       !- North Axis {deg}
    City,                    !- Terrain
    0.04,                    !- Loads Convergence Tolerance Value
    0.2,                     !- Temperature Convergence Tolerance Value {deltaC}
    FullInteriorAndExterior, !- Solar Distribution
    25,                      !- Maximum Number of Warmup Days
    6;                       !- Minimum Number of Warmup Days

  Zone,
    ActiveStorage_Basement_ZN ZN,  !- Name
    -0,                      !- Direction of Relative North {deg}
    0,                       !- X Origin {m}
    0,                       !- Y Origin {m}
    -3.17641024594195e-014,  !- Z Origin {m}
    ,                        !- Type
    ,                        !- Multiplier
    ,                        !- Ceiling Height {m}
    ,                        !- Volume {m3}
    ,                        !- Floor Area {m2}
    ,                        !- Zone Inside Convection Algorithm
    ;                        !- Zone Outside Convection Algorithm

  BuildingSurface:Detailed,
    Surface 105,             !- Name
    Floor,                   !- Surface Type
    Basement Floor construction,  !- Construction Name
    ActiveStorage_Basement_ZN ZN,  !- Zone Name
    Ground,                  !- Outside Boundary Condition
    ,                        !- Outside Boundary Condition Object
    NoSun,                   !- Sun Exposure
    NoWind,                  !- Wind Exposure
    ,                        !- View Factor to Ground
    ,                        !- Number of Vertices
    54.864,29.8402375,-2.4384,  !- X,Y,Z ==> Vertex 1 {m}
    54.864,18.8674375,-2.4384,  !- X,Y,Z ==> Vertex 2 {m}
    49.0728,18.8674375,-2.4384,  !- X,Y,Z ==> Vertex 3 {m}
    49.0728,29.8402375,-2.4384;  !- X,Y,Z ==> Vertex 4 {m}

  BuildingSurface:Detailed,
    Surface 106,             !- Name
    Wall,                    !- Surface Type
    Typical Interior Wall,   !- Construction Name
    ActiveStorage_Basement_ZN ZN,  !- Zone Name
    Surface,                 !- Outside Boundary Condition
    Surface 90,              !- Outside Boundary Condition Object
    NoSun,                   !- Sun Exposure
    NoWind,                  !- Wind Exposure
    ,                        !- View Factor to Ground
    ,                        !- Number of Vertices
    52.7304,18.8674375,2.31011654250324e-014,  !- X,Y,Z ==> Vertex 1 {m}
    52.7304,18.8674375,-2.4384,  !- X,Y,Z ==> Vertex 2 {m}
    54.864,18.8674375,-2.4384,  !- X,Y,Z ==> Vertex 3 {m}
    54.864,18.8674375,2.31011654250324e-014;  !- X,Y,Z ==> Vertex 4 {m}

  BuildingSurface:Detailed,
    Surface 107,             !- Name
    Wall,                    !- Surface Type
    Typical Interior Wall,   !- Construction Name
    ActiveStorage_Basement_ZN ZN,  !- Zone Name
    Surface,                 !- Outside Boundary Condition
    Surface 569,             !- Outside Boundary Condition Object
    NoSun,                   !- Sun Exposure
    NoWind,                  !- Wind Exposure
    ,                        !- View Factor to Ground
    ,                        !- Number of Vertices
    54.864,29.8402375,2.31011654250324e-014,  !- X,Y,Z ==> Vertex 1 {m}
    54.864,29.8402375,-2.4384,  !- X,Y,Z ==> Vertex 2 {m}
    49.0728,29.8402375,-2.4384,  !- X,Y,Z ==> Vertex 3 {m}
    49.0728,29.8402375,2.31011654250324e-014;  !- X,Y,Z ==> Vertex 4 {m}

  BuildingSurface:Detailed,
    Surface 108,             !- Name
    Wall,                    !- Surface Type
    Typical Interior Wall,   !- Construction Name
    ActiveStorage_Basement_ZN ZN,  !- Zone Name
    Surface,                 !- Outside Boundary Condition
    Surface 580,             !- Outside Boundary Condition Object
    NoSun,                   !- Sun Exposure
    NoWind,                  !- Wind Exposure
    ,                        !- View Factor to Ground
    ,                        !- Number of Vertices
    54.864,18.8674375,2.31011654250324e-014,  !- X,Y,Z ==> Vertex 1 {m}
    54.864,18.8674375,-2.4384,  !- X,Y,Z ==> Vertex 2 {m}
    54.864,29.8402375,-2.4384,  !- X,Y,Z ==> Vertex 3 {m}
    54.864,29.8402375,2.31011654250324e-014;  !- X,Y,Z ==> Vertex 4 {m}

  BuildingSurface:Detailed,
    Surface 109,             !- Name
    Wall,                    !- Surface Type
    Typical Interior Wall,   !- Construction Name
    ActiveStorage_Basement_ZN ZN,  !- Zone Name
    Surface,                 !- Outside Boundary Condition
    Surface 101,             !- Outside Boundary Condition Object
    NoSun,                   !- Sun Exposure
    NoWind,                  !- Wind Exposure
    ,                        !- View Factor to Ground
    ,                        !- Number of Vertices
    49.0728,29.8402375,2.31011654250324e-014,  !- X,Y,Z ==> Vertex 1 {m}
    49.0728,29.8402375,-2.4384,  !- X,Y,Z ==> Vertex 2 {m}
    49.0728,18.8674375,-2.4384,  !- X,Y,Z ==> Vertex 3 {m}
    49.0728,18.8674375,2.31011654250324e-014;  !- X,Y,Z ==> Vertex 4 {m}

  BuildingSurface:Detailed,
    Surface 110,             !- Name
    Ceiling,                 !- Surface Type
    Typical Interior Ceiling,!- Construction Name
    ActiveStorage_Basement_ZN ZN,  !- Zone Name
    Surface,                 !- Outside Boundary Condition
    Surface 218,             !- Outside Boundary Condition Object
    NoSun,                   !- Sun Exposure
    NoWind,                  !- Wind Exposure
    ,                        !- View Factor to Ground
    ,                        !- Number of Vertices
    54.864,18.8674375,2.31011654250324e-014,  !- X,Y,Z ==> Vertex 1 {m}
    54.864,29.8402375,2.31011654250324e-014,  !- X,Y,Z ==> Vertex 2 {m}
    49.0728,29.8402375,2.31011654250324e-014,  !- X,Y,Z ==> Vertex 3 {m}
    49.0728,18.8674375,2.31011654250324e-014;  !- X,Y,Z ==> Vertex 4 {m}

  BuildingSurface:Detailed,
    Surface 571,             !- Name
    Wall,                    !- Surface Type
    Typical Interior Wall,   !- Construction Name
    ActiveStorage_Basement_ZN ZN,  !- Zone Name
    Surface,                 !- Outside Boundary Condition
    Surface 77,              !- Outside Boundary Condition Object
    NoSun,                   !- Sun Exposure
    NoWind,                  !- Wind Exposure
    ,                        !- View Factor to Ground
    ,                        !- Number of Vertices
    49.0728,18.8674375,2.31011654250324e-014,  !- X,Y,Z ==> Vertex 1 {m}
    49.0728,18.8674375,-2.4384,  !- X,Y,Z ==> Vertex 2 {m}
    52.7304,18.8674375,-2.4384,  !- X,Y,Z ==> Vertex 3 {m}
    52.7304,18.8674375,2.31011654250324e-014;  !- X,Y,Z ==> Vertex 4 {m}

  InternalMass,
    ActiveStorage_Basement_ZN Mass,  !- Name
    InteriorFurnishings,     !- Construction Name
    ActiveStorage_Basement_ZN ZN,  !- Zone Name
    127.09135872;            !- Surface Area {m2}

  ZoneControl:Thermostat,
    ActiveStorage_Basement_ZN ZN Thermostat,  !- Name
    ActiveStorage_Basement_ZN ZN,  !- Zone or ZoneList Name
    ActiveStorage_Basement_ZN ZN Thermostat Schedule,  !- Control Type Schedule Name
    ThermostatSetpoint:DualSetpoint,  !- Control 1 Object Type
    Storage Thermostat 1;    !- Control 1 Name

  Schedule:Compact,
    ActiveStorage_Basement_ZN ZN Thermostat Schedule,  !- Name
    ActiveStorage_Basement_ZN ZN Thermostat Schedule Type Limits,  !- Schedule Type Limits Name
    Through: 12/31,          !- Field 1
    For: AllDays,            !- Field 2
    Until: 24:00,4;          !- Field 3

  ScheduleTypeLimits,
    ActiveStorage_Basement_ZN ZN Thermostat Schedule Type Limits,  !- Name
    0,                       !- Lower Limit Value
    4,                       !- Upper Limit Value
    DISCRETE;                !- Numeric Type

  ThermostatSetpoint:DualSetpoint,
    Storage Thermostat 1,    !- Name
    OfficeLarge HTGSETP_SCH_YES_OPTIMUM,  !- Heating Setpoint Temperature Schedule Name
    OfficeLarge CLGSETP_SCH_NO_SETBACK;  !- Cooling Setpoint Temperature Schedule Name

  ScheduleTypeLimits,
    Temperature,             !- Name
    ,                        !- Lower Limit Value
    ,                        !- Upper Limit Value
    Continuous,              !- Numeric Type
    temperature;             !- Unit Type

  Schedule:Day:Interval,
    OfficeLarge HTGSETP_SCH_YES_OPTIMUM Default,  !- Name
    Temperature,             !- Schedule Type Limits Name
    No,                      !- Interpolate to Timestep
    24:00,                   !- Time 1
    15.6;                    !- Value Until Time 1

  Schedule:Day:Interval,
    OfficeLarge HTGSETP_SCH_YES_OPTIMUM Wkdy Day,  !- Name
    Temperature,             !- Schedule Type Limits Name
    No,                      !- Interpolate to Timestep
    04:00,                   !- Time 1
    15.6,                    !- Value Until Time 1
    05:00,                   !- Time 2
    17.8,                    !- Value Until Time 2
    06:00,                   !- Time 3
    20,                      !- Value Until Time 3
    22:00,                   !- Time 4
    21,                      !- Value Until Time 4
    24:00,                   !- Time 5
    15.6;                    !- Value Until Time 5

  Schedule:Day:Interval,
    OfficeLarge HTGSETP_SCH_YES_OPTIMUM Sat Day,  !- Name
    Temperature,             !- Schedule Type Limits Name
    No,                      !- Interpolate to Timestep
    04:00,                   !- Time 1
    15.6,                    !- Value Until Time 1
    05:00,                   !- Time 2
    17.8,                    !- Value Until Time 2
    06:00,                   !- Time 3
    20,                      !- Value Until Time 3
    17:00,                   !- Time 4
    21,                      !- Value Until Time 4
    24:00,                   !- Time 5
    15.6;                    !- Value Until Time 5

  Schedule:Week:Daily,
    OfficeLarge HTGSETP_SCH_YES_OPTIMUM Week Rule - Jan1-Dec31,  !- Name
    OfficeLarge HTGSETP_SCH_YES_OPTIMUM Default,  !- Sunday Schedule:Day Name
    OfficeLarge HTGSETP_SCH_YES_OPTIMUM Wkdy Day,  !- Monday Schedule:Day Name
    OfficeLarge HTGSETP_SCH_YES_OPTIMUM Wkdy Day,  !- Tuesday Schedule:Day Name
    OfficeLarge HTGSETP_SCH_YES_OPTIMUM Wkdy Day,  !- Wednesday Schedule:Day Name
    OfficeLarge HTGSETP_SCH_YES_OPTIMUM Wkdy Day,  !- Thursday Schedule:Day Name
    OfficeLarge HTGSETP_SCH_YES_OPTIMUM Wkdy Day,  !- Friday Schedule:Day Name
    OfficeLarge HTGSETP_SCH_YES_OPTIMUM Sat Day,  !- Saturday Schedule:Day Name
    OfficeLarge HTGSETP_SCH_YES_OPTIMUM Default,  !- Holiday Schedule:Day Name
    OfficeLarge HTGSETP_SCH_YES_OPTIMUM Summer Design Day,  !- SummerDesignDay Schedule:Day Name
    OfficeLarge HTGSETP_SCH_YES_OPTIMUM Winter Design Day,  !- WinterDesignDay Schedule:Day Name
    OfficeLarge HTGSETP_SCH_YES_OPTIMUM Default,  !- CustomDay1 Schedule:Day Name
    OfficeLarge HTGSETP_SCH_YES_OPTIMUM Default;  !- CustomDay2 Schedule:Day Name

  Schedule:Year,
    OfficeLarge HTGSETP_SCH_YES_OPTIMUM,  !- Name
    Temperature,             !- Schedule Type Limits Name
    OfficeLarge HTGSETP_SCH_YES_OPTIMUM Week Rule - Jan1-Dec31,  !- Schedule:Week Name 1
    1,                       !- Start Month 1
    1,                       !- Start Day 1
    12,                      !- End Month 1
    31;                      !- End Day 1

  Schedule:Day:Interval,
    OfficeLarge HTGSETP_SCH_YES_OPTIMUM Summer Design Day,  !- Name
    Temperature,             !- Schedule Type Limits Name
    No,                      !- Interpolate to Timestep
    24:00,                   !- Time 1
    15.6;                    !- Value Until Time 1

  Schedule:Day:Interval,
    OfficeLarge HTGSETP_SCH_YES_OPTIMUM Winter Design Day,  !- Name
    Temperature,             !- Schedule Type Limits Name
    No,                      !- Interpolate to Timestep
    05:00,                   !- Time 1
    15.6,                    !- Value Until Time 1
    06:00,                   !- Time 2
    17.6,                    !- Value Until Time 2
    07:00,                   !- Time 3
    19.6,                    !- Value Until Time 3
    22:00,                   !- Time 4
    21,                      !- Value Until Time 4
    24:00,                   !- Time 5
    15.6;                    !- Value Until Time 5

  Schedule:Day:Interval,
    OfficeLarge CLGSETP_SCH_NO_SETBACK Default,  !- Name
    Temperature,             !- Schedule Type Limits Name
    No,                      !- Interpolate to Timestep
    24:00,                   !- Time 1
    24;                      !- Value Until Time 1

  Schedule:Day:Interval,
    OfficeLarge CLGSETP_SCH_NO_SETBACK Default|WntrDsn|Sat|Wkdy Day,  !- Name
    Temperature,             !- Schedule Type Limits Name
    No,                      !- Interpolate to Timestep
    24:00,                   !- Time 1
    24;                      !- Value Until Time 1

  Schedule:Week:Daily,
    OfficeLarge CLGSETP_SCH_NO_SETBACK Week Rule - Jan1-Dec31,  !- Name
    OfficeLarge CLGSETP_SCH_NO_SETBACK Default,  !- Sunday Schedule:Day Name
    OfficeLarge CLGSETP_SCH_NO_SETBACK Default|WntrDsn|Sat|Wkdy Day,  !- Monday Schedule:Day Name
    OfficeLarge CLGSETP_SCH_NO_SETBACK Default|WntrDsn|Sat|Wkdy Day,  !- Tuesday Schedule:Day Name
    OfficeLarge CLGSETP_SCH_NO_SETBACK Default|WntrDsn|Sat|Wkdy Day,  !- Wednesday Schedule:Day Name
    OfficeLarge CLGSETP_SCH_NO_SETBACK Default|WntrDsn|Sat|Wkdy Day,  !- Thursday Schedule:Day Name
    OfficeLarge CLGSETP_SCH_NO_SETBACK Default|WntrDsn|Sat|Wkdy Day,  !- Friday Schedule:Day Name
    OfficeLarge CLGSETP_SCH_NO_SETBACK Default|WntrDsn|Sat|Wkdy Day,  !- Saturday Schedule:Day Name
    OfficeLarge CLGSETP_SCH_NO_SETBACK Default,  !- Holiday Schedule:Day Name
    OfficeLarge CLGSETP_SCH_NO_SETBACK Summer Design Day,  !- SummerDesignDay Schedule:Day Name
    OfficeLarge CLGSETP_SCH_NO_SETBACK Winter Design Day,  !- WinterDesignDay Schedule:Day Name
    OfficeLarge CLGSETP_SCH_NO_SETBACK Default,  !- CustomDay1 Schedule:Day Name
    OfficeLarge CLGSETP_SCH_NO_SETBACK Default;  !- CustomDay2 Schedule:Day Name

  Schedule:Year,
    OfficeLarge CLGSETP_SCH_NO_SETBACK,  !- Name
    Temperature,             !- Schedule Type Limits Name
    OfficeLarge CLGSETP_SCH_NO_SETBACK Week Rule - Jan1-Dec31,  !- Schedule:Week Name 1
    1,                       !- Start Month 1
    1,                       !- Start Day 1
    12,                      !- End Month 1
    31;                      !- End Day 1

  Schedule:Day:Interval,
    OfficeLarge CLGSETP_SCH_NO_SETBACK Summer Design Day,  !- Name
    Temperature,             !- Schedule Type Limits Name
    No,                      !- Interpolate to Timestep
    05:00,                   !- Time 1
    26.7,                    !- Value Until Time 1
    06:00,                   !- Time 2
    25.7,                    !- Value Until Time 2
    07:00,                   !- Time 3
    25,                      !- Value Until Time 3
    22:00,                   !- Time 4
    24,                      !- Value Until Time 4
    24:00,                   !- Time 5
    26.7;                    !- Value Until Time 5

  Schedule:Day:Interval,
    OfficeLarge CLGSETP_SCH_NO_SETBACK Winter Design Day,  !- Name
    Temperature,             !- Schedule Type Limits Name
    No,                      !- Interpolate to Timestep
    24:00,                   !- Time 1
    24;                      !- Value Until Time 1

  ZoneHVAC:EquipmentConnections,
    ActiveStorage_Basement_ZN ZN,  !- Zone Name
    ActiveStorage_Basement_ZN ZN Equipment List,  !- Zone Conditioning Equipment List Name
    ActiveStorage_Basement_ZN ZN Inlet Node List,  !- Zone Air Inlet Node or NodeList Name
    ,                        !- Zone Air Exhaust Node or NodeList Name
    Node 1,                  !- Zone Air Node Name
    ActiveStorage_Basement_ZN ZN Return Node List;  !- Zone Return Air Node or NodeList Name

  NodeList,
    ActiveStorage_Basement_ZN ZN Inlet Node List,  !- Name
    Node 661;                !- Node 1 Name

  NodeList,
    ActiveStorage_Basement_ZN ZN Return Node List,  !- Name
    Node 662;                !- Node 1 Name

  ZoneHVAC:AirDistributionUnit,
    ADU ActiveStorage_Basement_ZN ZN VAV Terminal,  !- Name
    Node 661,                !- Air Distribution Unit Outlet Node Name
    AirTerminal:SingleDuct:VAV:Reheat,  !- Air Terminal Object Type
    ActiveStorage_Basement_ZN ZN VAV Terminal;  !- Air Terminal Name

  AirTerminal:SingleDuct:VAV:Reheat,
    ActiveStorage_Basement_ZN ZN VAV Terminal,  !- Name
    Always On Discrete,      !- Availability Schedule Name
    ActiveStorage_Basement_ZN ZN VAV Terminal Damper Outlet,  !- Damper Air Outlet Node Name
    Node 663,                !- Air Inlet Node Name
    Autosize,                !- Maximum Air Flow Rate {m3/s}
    Constant,                !- Zone Minimum Air Flow Input Method
    0.2,                     !- Constant Minimum Air Flow Fraction
    0,                       !- Fixed Minimum Air Flow Rate {m3/s}
    ,                        !- Minimum Air Flow Fraction Schedule Name
    Coil:Heating:Water,      !- Reheat Coil Object Type
    ActiveStorage_Basement_ZN ZN Reheat Coil,  !- Reheat Coil Name
    Autosize,                !- Maximum Hot Water or Steam Flow Rate {m3/s}
    0,                       !- Minimum Hot Water or Steam Flow Rate {m3/s}
    Node 661,                !- Air Outlet Node Name
    0.001,                   !- Convergence Tolerance
    ReverseWithLimits,       !- Damper Heating Action
    0,                       !- Maximum Flow per Zone Floor Area During Reheat {m3/s-m2}
    0.5,                     !- Maximum Flow Fraction During Reheat
    50.0000000000001;        !- Maximum Reheat Air Temperature {C}

  Coil:Heating:Water,
    ActiveStorage_Basement_ZN ZN Reheat Coil,  !- Name
    Always On Discrete,      !- Availability Schedule Name
    Autosize,                !- U-Factor Times Area Value {W/K}
    Autosize,                !- Maximum Water Flow Rate {m3/s}
    Node 659,                !- Water Inlet Node Name
    Node 660,                !- Water Outlet Node Name
    ActiveStorage_Basement_ZN ZN VAV Terminal Damper Outlet,  !- Air Inlet Node Name
    Node 661,                !- Air Outlet Node Name
    UFactorTimesAreaAndDesignWaterFlowRate,  !- Performance Input Method
    Autosize,                !- Rated Capacity {W}
    82.2222222222223,        !- Rated Inlet Water Temperature {C}
    16.6666666666667,        !- Rated Inlet Air Temperature {C}
    71.1111111111112,        !- Rated Outlet Water Temperature {C}
    50.0000000000001,        !- Rated Outlet Air Temperature {C}
    0.5;                     !- Rated Ratio for Air and Water Convection

  Schedule:Constant,Always On Discrete,OnOff,1;

  ZoneHVAC:EquipmentList,
    ActiveStorage_Basement_ZN ZN Equipment List,  !- Name
    SequentialLoad,          !- Load Distribution Scheme
    ZoneHVAC:AirDistributionUnit,  !- Zone Equipment 1 Object Type
    ADU ActiveStorage_Basement_ZN ZN VAV Terminal,  !- Zone Equipment 1 Name
    1,                       !- Zone Equipment 1 Cooling Sequence
    1,                       !- Zone Equipment 1 Heating or No-Load Sequence
    ,                        !- Zone Equipment 1 Sequential Cooling Fraction
    ;                        !- Zone Equipment 1 Sequential Heating Fraction

  Sizing:Zone,
    ActiveStorage_Basement_ZN ZN,  !- Zone or ZoneList Name
    SupplyAirTemperature,    !- Zone Cooling Design Supply Air Temperature Input Method
    12.7777777777778,        !- Zone Cooling Design Supply Air Temperature {C}
    11.11,                   !- Zone Cooling Design Supply Air Temperature Difference {deltaC}
    SupplyAirTemperature,    !- Zone Heating Design Supply Air Temperature Input Method
    50.0000000000001,        !- Zone Heating Design Supply Air Temperature {C}
    11.11,                   !- Zone Heating Design Supply Air Temperature Difference {deltaC}
    0.0085,                  !- Zone Cooling Design Supply Air Humidity Ratio {kgWater/kgDryAir}
    0.008,                   !- Zone Heating Design Supply Air Humidity Ratio {kgWater/kgDryAir}
    Storage Ventilation,     !- Design Specification Outdoor Air Object Name
    ,                        !- Zone Heating Sizing Factor
    ,                        !- Zone Cooling Sizing Factor
    DesignDayWithLimit,      !- Cooling Design Air Flow Method
    0,                       !- Cooling Design Air Flow Rate {m3/s}
    0.000762,                !- Cooling Minimum Air Flow per Zone Floor Area {m3/s-m2}
    0,                       !- Cooling Minimum Air Flow {m3/s}
    0,                       !- Cooling Minimum Air Flow Fraction
    DesignDay,               !- Heating Design Air Flow Method
    0,                       !- Heating Design Air Flow Rate {m3/s}
    0.002032,                !- Heating Maximum Air Flow per Zone Floor Area {m3/s-m2}
    0.1415762,               !- Heating Maximum Air Flow {m3/s}
    0.3,                     !- Heating Maximum Air Flow Fraction